lib/rce_framework_V2.0/casos de uso/examples/rede_10_barras.pwf
(Deck didatico PWF - Smart Grid Studio)
(DBAR: numero tipo nome kV Vm angulo Pg Qg Pl Ql)
(DLIN: barra_de barra_para circuito R% X% Mvar tap)
TITU
REDE DIDATICA 10 BARRAS
DGBT
(G kV)
A 230
B 69
99999
DBAR
1 REF BARRA_1 230 1.00 0 0 0 0 0
2 PQ BARRA_2 230 1.00 0 0 0 20 8
3 PQ BARRA_3 230 1.00 0 0 0 18 7
4 PQ BARRA_4 230 1.00 0 0 0 22 9
5 PV BARRA_5 230 1.02 0 60 0 0 0
6 PQ BARRA_6 230 1.00 0 0 0 24 10
7 PQ BARRA_7 230 1.00 0 0 0 16 6
8 PQ BARRA_8 230 1.00 0 0 0 18 7
9 PQ BARRA_9 230 1.00 0 0 0 15 6
10 PQ BARRA_10 69 1.00 0 0 0 20 8
99999
DLIN
1 2 1 0.6 6.0 0.0 1.0
2 3 1 0.6 6.0 0.0 1.0
3 4 1 0.7 6.5 0.0 1.0
4 5 1 0.5 5.0 0.0 1.0
5 6 1 0.6 6.0 0.0 1.0
6 7 1 0.7 6.5 0.0 1.0
7 8 1 0.6 6.0 0.0 1.0
8 9 1 0.7 6.5 0.0 1.0
9 10 1 0.5 10.0 0.0 1.0
99999
FIM